[General]
output-scalar-file = "${configname}.sca"
output-vector-file = "${configname}.vec"
# abstract = true
sim-time-limit=40s
warmup-period=1s
seed-set = ${repetition}

debug-on-errors = false

############### Statistics ##################
output-scalar-file = ${resultdir}/${configname}/${iterationvars}-${repetition}.sca
output-vector-file = ${resultdir}/${configname}/${iterationvars}-${repetition}.vec

**.vector-recording = true
**.sctp.**.scalar-recording = false  # remove annoying statistics from SCTP
**.sctp.**.vector-recording = false  # remove annoying statistics from SCTP
**.routingRecorder.enabled = false

############ Floorplan definition #################
**.mobility.constraintAreaMaxX = 1000m
**.mobility.constraintAreaMaxY = 700m
**.mobility.constraintAreaMinX = 0m
**.mobility.constraintAreaMinY = 0m
**.mobility.constraintAreaMinZ = 0m
**.mobility.constraintAreaMaxZ = 0m
**.mobility.initFromDisplayString = false

############### IPv4 configurator config #################
*.configurator.config = xmldoc("./demo.xml")

############### SCTP configuration ##################
**.sctp.nagleEnabled = false         # if true, transmission of small packets will be delayed on the X2
**.sctp.enableHeartbeats = false

**.fading = false
**.shadowing = false
**.targetBler = 0.01
**.blerShift = 5


#------------------------------------#
# Config DualConnectivity
#
# Topology configuration for the exemplary scenario for Dual Connectivity
#
[Config DualConnectivity]
network = simu5g.simulations.nr.networks.MultiCell_withSecondaryGnb
description = "Base configuration, do not run this config!"
# abstract = true

############### e/gNodeB configuration #################
*.masterEnb1.mobility.initialX = 300m
*.masterEnb1.mobility.initialY = 300m
*.secondaryGnb1.mobility.initialX = 500m
*.secondaryGnb1.mobility.initialY = 400m

*.masterEnb2.mobility.initialX = 700m
*.masterEnb2.mobility.initialY = 300m
*.secondaryGnb2.mobility.initialX = 800m
*.secondaryGnb2.mobility.initialY = 400m

# the LTE eNodeB must instantiate the NR PDCP layer to exploit Dual Connectivity
# the NR gNodeB comes with NR PDCP layer by default
*.masterEnb*.cellularNic.typename = "LteNicEnbD2D"
*.masterEnb*.cellularNic.pdcp.typename = "NrPdcpEnb"
*.secondaryGnb1.masterId = 1
*.secondaryGnb2.masterId = 3
**.dualConnectivityEnabled = true

# PHY layer configuration
**.downlinkInterference = true
**.uplinkInterference = true
*.masterEnb*.cellularNic.phy.eNodeBTxPower = 40dBm
*.secondaryGnb*.cellularNic.phy.eNodeBTxPower = 20dBm
**.minRssi = 1dB

############### CA configuration ########################
*.carrierAggregation.numComponentCarriers = 2
*.carrierAggregation.componentCarrier[0].carrierFrequency = 2GHz
*.carrierAggregation.componentCarrier[0].numBands = 50
*.carrierAggregation.componentCarrier[0].numerologyIndex = 0
*.carrierAggregation.componentCarrier[1].carrierFrequency = 4GHz
*.carrierAggregation.componentCarrier[1].numBands = 50
*.carrierAggregation.componentCarrier[1].numerologyIndex = 0

*.masterEnb*.cellularNic.numCarriers = 1
*.masterEnb*.cellularNic.channelModel[0].componentCarrierModule = "carrierAggregation.componentCarrier[0]"
*.secondaryGnb*.cellularNic.numCarriers = 1
*.secondaryGnb*.cellularNic.channelModel[0].componentCarrierModule = "carrierAggregation.componentCarrier[1]"

*.ue[*].cellularNic.numCarriers = 1
*.ue[*].cellularNic.numNrCarriers = 1
*.ue[*].cellularNic.channelModel[0].componentCarrierModule = "carrierAggregation.componentCarrier[0]"
*.ue[*].cellularNic.nrChannelModel[0].componentCarrierModule = "carrierAggregation.componentCarrier[1]"


############### X2 configuration #################
*.masterEnb*.numX2Apps = 2    # one x2App per peering node
*.secondaryGnb*.numX2Apps = 1    # one x2App per peering node
*.*.x2App[*].server.localPort = 5000 + ancestorIndex(1) # Server ports (x2App[0]=5000, x2App[1]=5001, ...)

# Dual connectivity connections
*.masterEnb1.x2App[0].client.connectAddress = "secondaryGnb1%x2ppp0"
*.masterEnb2.x2App[0].client.connectAddress = "secondaryGnb2%x2ppp0"
*.secondaryGnb1.x2App[0].client.connectAddress = "masterEnb1%x2ppp0"
*.secondaryGnb2.x2App[0].client.connectAddress = "masterEnb2%x2ppp0"

# inter-master nodes connections
*.masterEnb1.x2App[1].client.connectAddress = "masterEnb2%x2ppp1"
*.masterEnb2.x2App[1].client.connectAddress = "masterEnb1%x2ppp1"

############## UE configuration ##################
*.numUe = 1

# during the initalization phase, the UE chooses the base station with the largest RSRP
**.dynamicCellAssociation = true
**.enableHandover = true

# connect the UE's NIC to the corresponding serving eNB/gNB
# NOTE: these parameters are ignored when dynamicCellAssociation=true
*.ue[*].macCellId = 1
*.ue[*].masterId = 1
*.ue[*].nrMacCellId = 2
*.ue[*].nrMasterId = 2


# UE position
*.ue[*].mobility.typename = "LinearMobility"
*.ue[*].mobility.initialX = 300m
*.ue[*].mobility.initialY = 350m
*.ue[*].mobility.speed = 13.9mps  # 50 Km/h
*.ue[*].mobility.initialMovementHeading = 0deg

#------------------------------------#




###########################
# Runnable configurations #
###########################

# In the current version, the Ip2Nic module of the master eNB (the UE) selects which path
# to follow based on the Type of Service (TOS) field:
# - use master eNB if tos < 10
# - use secondary gNB if 10 <= tos < 20
# - use split bearer if tos >= 20
#
# To change the policy, change the implementation of the Ip2Nic::markPacket() function


#------------------------------------#
# Config SingleConnection-SUMO-DL
#
# Igual que SingleConnection-CBR-DL pero con movilidad real desde trazas SUMO.
# Usa INET TraceFileMobility — el UE sigue la trayectoria exportada por 00d.
# El archivo de trazas se inyecta por corrida desde 00_run_omnet_obj2_batch.py
# con -G "*.ue[0].mobility.traceFile=<path>".
[Config SingleConnection-SUMO-DL]
extends = SingleConnection-CBR-DL
description = "one CBR DL connection with SUMO trajectory (TraceFileMobility)"
*.ue[*].mobility.typename = "TraceFileMobility"
*.ue[*].mobility.updateInterval = 0.1s
*.ue[*].mobility.traceFile = default("data/sumo_traces_omnet/demo/VFH_demo.trace")
#------------------------------------#


#------------------------------------#
# Config DoubleConnection-SUMO-DL
#
# Igual que DoubleConnection-CBR-DL pero con movilidad real desde trazas SUMO.
[Config DoubleConnection-SUMO-DL]
extends = DoubleConnection-CBR-DL
description = "two CBR DL connections with SUMO trajectory (TraceFileMobility)"
*.ue[*].mobility.typename = "TraceFileMobility"
*.ue[*].mobility.updateInterval = 0.1s
*.ue[*].mobility.traceFile = default("data/sumo_traces_omnet/demo/VFH_demo.trace")
#------------------------------------#


#------------------------------------#
# Config SingleConnection-CBR-DL
#
# In this configuration, the UE has one downlink connection, which goes through the
# secondary gNB. If the secondary gNB is out of range, then the data flow goes
# through the LTE master eNB
[Config SingleConnection-CBR-DL]
extends = DualConnectivity
description = "one CBR downlink connection - if gNB out of range, use eNB"

# one UDP application for each user
*.ue[*].numApps = 1

# the amount of UDP applications on server should be equal to (numUEs)*(ue[*].numApps)
*.server.numApps = 1

#============= Application Setup =============
*.ue[*].app[*].typename = "CbrReceiver"
*.ue[*].app[*].localPort = 3000

*.server.app[*].typename = "CbrSender"
*.server.app[*].destAddress = "ue[" + string(ancestorIndex(0)) + "]" # obtain the address of the client by reading its index in the array of apps
*.server.app[*].localPort = 3088+ancestorIndex(0)
*.server.app[*].destPort = 3000
*.server.app[*].packetSize = 1000B
*.server.app[*].samplingTime = 0.05s
*.server.app[*].startTime = uniform(0.02s, 0.05s)
*.server.app[*].finishTime = 39.9s
*.server.app[*].tos = 10
#------------------------------------#




#------------------------------------#
# Config SingleConnection-CBR-UL
#
# In this configuration, the UE has one uplink connection, which goes through the
# secondary gNB. If the secondary gNB is out of range, then the data flow goes
# through the LTE master eNB
[Config SingleConnection-CBR-UL]
extends = DualConnectivity
description = "one CBR uplink connection - if gNB out of range, use eNB"

# one UDP application for each user
*.ue[*].numApps = 1

# the amount of UDP applications on server should be equal to (numUEs)*(ue[*].numApps)
*.server.numApps = 1

#============= Application Setup =============
*.server.app[*].typename = "CbrReceiver"
*.server.app[*].localPort = 3000

*.ue[*].app[*].typename = "CbrSender"
*.ue[*].app[*].destAddress = "server"
*.ue[*].app[*].packetSize = 1000B
*.ue[*].app[*].samplingTime = 0.05s
*.ue[*].app[*].localPort = 3088
*.ue[*].app[*].destPort = 3000
*.ue[*].app[*].startTime = uniform(0.02s, 0.05s)
*.ue[*].app[*].finishTime = 39.9s
*.ue[*].app[*].tos = 10
#------------------------------------#

#------------------------------------#
# Config DoubleConnection-CBR-DL
#
# In this configuration, the UE has TWO independent DL connections, one
# going through the LTE eNodeB, the other one through the gNodeB
[Config DoubleConnection-CBR-DL]
extends = DualConnectivity
description = "two CBR downlink connections - one via eNodeB, one via gNodeB"

# one UDP application for each user
*.ue[*].numApps = 2

# the amount of UDP applications on server should be equal to (numUEs)*(ue[*].numApps)
*.server.numApps = 2

#============= Applications Setup =============
*.ue[*].app[*].typename = "CbrReceiver"
*.ue[*].app[*].localPort = 3000+ancestorIndex(0)

*.server.app[*].typename = "CbrSender"
*.server.app[*].destAddress = "ue[0]" # obtain the address of the client by reading its index in the array of apps
*.server.app[*].localPort = 3088+ancestorIndex(0)
*.server.app[*].destPort = 3000+ancestorIndex(0)
*.server.app[*].packetSize = 1000B
*.server.app[*].samplingTime = 0.05s
*.server.app[*].startTime = uniform(0.02s, 0.05s)
*.server.app[*].finishTime = 39.9s
*.server.app[0].tos = -1
*.server.app[1].tos = 10
#------------------------------------#


#------------------------------------#
# Config DoubleConnection-CBR-UL
#
# In this configuration, the UE has TWO independent UL connections, one
# going through the LTE eNodeB, the other one through the gNodeB
[Config DoubleConnection-CBR-UL]
extends = DualConnectivity
description = "two CBR uplink connections - one via eNodeB, one via gNodeB"

# one UDP application for each user
*.ue[*].numApps = 2

# the amount of UDP applications on server should be equal to (numUEs)*(ue[*].numApps)
*.server.numApps = 2

#============= Application Setup =============
*.server.app[*].typename = "CbrReceiver"
*.server.app[*].localPort = 3000+ancestorIndex(0)

*.ue[*].app[*].typename = "CbrSender"
*.ue[*].app[*].destAddress = "server"
*.ue[*].app[*].packetSize = 1000B
*.ue[*].app[*].samplingTime = 0.05s
*.ue[*].app[*].localPort = 3088+ancestorIndex(0)
*.ue[*].app[*].destPort = 3000+ancestorIndex(0)
*.ue[*].app[*].startTime = uniform(0.02s, 0.05s)
*.ue[*].app[*].finishTime = 39.9s
*.ue[*].app[0].tos = -1
*.ue[*].app[1].tos = 10
#------------------------------------#


#------------------------------------#
# Config SplitBearer-CBR-DL
#
# In this configuration, the UE has one DL connection, exploiting Split Bearer feature,
# hence some packets go through the secondary gNB, some packets go through the master eNB
[Config SplitBearer-CBR-DL]
extends = DualConnectivity
description = "one CBR downlink, split bearer"

# one UDP application for each user
*.ue[*].numApps = 1

# the amount of UDP applications on server should be equal to (numUEs)*(ue[*].numApps)
*.server.numApps = 1

#============= Application Setup =============
*.ue[*].app[*].typename = "CbrReceiver"
*.ue[*].app[*].localPort = 3000

*.server.app[*].typename = "CbrSender"
*.server.app[*].destAddress = "ue[" + string(ancestorIndex(0)) + "]" # obtain the address of the client by reading its index in the array of apps
*.server.app[*].localPort = 3088+ancestorIndex(0)
*.server.app[*].destPort = 3000
*.server.app[*].packetSize = 1000B
*.server.app[*].samplingTime = 0.05s
*.server.app[*].startTime = uniform(0.02s, 0.05s)
*.server.app[*].finishTime = 39.9s
*.server.app[*].tos = 20
#------------------------------------#



[Config InTAS-4Cells-CBR-DL]
# Escenario reducido de demostración (4 celdas).
# Requiere los archivos NED de InTAS (intas.networks.InTAS_MultiCell_Standalone)
# que forman parte de la instalación completa del framework InTAS.
network = intas.networks.InTAS_MultiCell_Standalone
include configs/intas_positions_4cells.ini

*.numGnb = 4
*.numUe  = 1
*.ue[*].masterId = 1
output-vector-file = "${resultdir}/${configname}.vec"
output-scalar-file = "${resultdir}/${configname}.sca"
*.server.numApps = 1
*.server.app[0].typename = "UdpSink"
*.server.app[0].localPort = 1000
*.ue[*].numApps = 1
*.ue[*].app[0].typename = "UdpBasicApp"
*.ue[*].app[0].destAddresses = "server"
*.ue[*].app[0].destPort = 1000
*.ue[*].app[0].messageLength = 1024B
*.ue[*].app[0].sendInterval = 0.01s
*.ue[*].app[0].startTime = 1s


[Config InTAS-10Cells-CBR-DL]
# Escenario completo InTAS (10 celdas).
# REQUISITO: archivos NED del framework InTAS en el NED path.
#   - intas/networks/InTAS_MultiCell_Standalone.ned
#   - intas/nodes/InTAS_gNB.ned  (y demás nodos)
# Estos forman parte de la instalación completa del simulador InTAS y no se
# incluyen en este repositorio ligero. Para compilarlos, clonar el repositorio
# InTAS-framework y compilarlo junto con INET + Simu5G.
# Las configuraciones SingleConnection-CBR-DL y DoubleConnection-CBR-DL
# (usadas por el pipeline principal) sí funcionan con Simu5G estándar.
network = intas.networks.InTAS_MultiCell_Standalone
include configs/intas_positions_10cells.ini

*.numGnb = 10
*.numUe  = 1

# evitar prompt en Cmdenv
*.ue[*].masterId = 1

# outputs (INI, NO terminal)
output-vector-file = "${resultdir}/${configname}.vec"
output-scalar-file = "${resultdir}/${configname}.sca"

# tráfico UDP simple (demo)
*.server.numApps = 1
*.server.app[0].typename = "UdpSink"
*.server.app[0].localPort = 1000

*.ue[*].numApps = 1
*.ue[*].app[0].typename = "UdpBasicApp"
*.ue[*].app[0].destAddresses = "server"
*.ue[*].app[0].destPort = 1000
*.ue[*].app[0].messageLength = 1024B
*.ue[*].app[0].sendInterval = 0.01s
*.ue[*].app[0].startTime = 1s


#------------------------------------#
# Config InTAS-SUMOTrace-CBR-DL
#
# Acoplamiento secuencial SUMO→OMNeT++ (integración offline).
# Usa trazas de movilidad reales generadas por SUMO (paso 00A) y exportadas
# al formato INET por el script 00d_export_sumo_traces_for_omnet.py.
#
# En lugar de LinearMobility (trayectoria recta artificial), los UEs siguen
# las posiciones reales de la simulación SUMO, completando la co-integración
# SUMO↔OMNeT++ del sistema InTAS de forma secuencial (offline).
# (La alternativa en tiempo real es Veins/TraCI, que requiere instalación completa.)
#
# REQUISITOS:
#   1. Ejecutar paso 00A (SUMO) + 00d (export trazas): INTAS_RUN_SUMO=1
#   2. INET >= 4.3 con módulo TraceFileMobility
#   3. Archivos NED de InTAS (intas.networks.InTAS_MultiCell_Standalone)
#
# El archivo de trazas se especifica por corrida via variable de entorno
# o argumento -G al invocar opp_run.
#------------------------------------#
[Config InTAS-SUMOTrace-CBR-DL]
extends = InTAS-10Cells-CBR-DL

# Reemplaza LinearMobility con trazas reales exportadas desde SUMO FCD
*.ue[*].mobility.typename = "TraceFileMobility"
# traceFile se sobreescribe por corrida con -G o variables de iteración:
# opp_run ... -G "*.ue[0].mobility.traceFile=data/sumo_traces_omnet/<run_id>/<veh>.trace"
*.ue[*].mobility.traceFile = default("data/sumo_traces_omnet/demo/VFH_demo.trace")
*.ue[*].mobility.updateInterval = 0.1s

