<?xml version="1.0" encoding="UTF-8"?>

<!-- generated on 2025-10-28 23:32:48 by Eclipse SUMO netedit Version 1.24.0
-->

<additional xmlns:xsi="http://www.w3.org/2001/XMLSchema-instance" xsi:noNamespaceSchemaLocation="http://sumo.dlr.de/xsd/additional_file.xsd">
    <!-- Shapes -->
    <poly id="CELL_A01_1" color="0,180,255,80" fill="1" layer="50.00" shape="212600.000000,453000.000000 212900.000000,453000.000000 213000.000000,453200.000000 212900.000000,453400.000000 212600.000000,453400.000000 212500.000000,453200.000000 212600.000000,453000.000000"/>
    <poly id="CELL_A01_10" type="cell" color="0,180,255,80" fill="1" layer="50.00" shape="214200.000000,451100.000000 214500.000000,451100.000000 214600.000000,451300.000000 214500.000000,451500.000000 214200.000000,451500.000000 214100.000000,451300.000000 214200.000000,451100.000000"/>
    <poly id="CELL_A01_2" color="0,180,255,80" fill="1" layer="50.00" shape="215300.000000,453600.000000 215600.000000,453600.000000 215700.000000,453800.000000 215600.000000,454000.000000 215300.000000,454000.000000 215200.000000,453800.000000 215300.000000,453600.000000"/>
    <poly id="CELL_A01_3" color="0,180,255,80" fill="1" layer="50.00" shape="213200.000000,452300.000000 213500.000000,452300.000000 213600.000000,452500.000000 213500.000000,452700.000000 213200.000000,452700.000000 213100.000000,452500.000000 213200.000000,452300.000000"/>
    <poly id="CELL_A01_4" color="0,180,255,80" fill="1" layer="50.00" shape="212900.000000,451300.000000 213200.000000,451300.000000 213300.000000,451500.000000 213200.000000,451700.000000 212900.000000,451700.000000 212800.000000,451500.000000 212900.000000,451300.000000"/>
    <poly id="CELL_A01_5" color="0,180,255,80" fill="1" layer="50.00" shape="214800.000000,452000.000000 215100.000000,452000.000000 215200.000000,452200.000000 215100.000000,452400.000000 214800.000000,452400.000000 214700.000000,452200.000000 214800.000000,452000.000000"/>
    <poly id="CELL_A01_6" type="cell" color="0,180,255,80" fill="1" layer="50.00" shape="213800.000000,451300.000000 213700.000000,451100.000000 213400.000000,451100.000000 213300.000000,451300.000000 213400.000000,451500.000000 213700.000000,451500.000000 213800.000000,451300.000000"/>
    <poly id="CELL_A01_7" type="cell" color="0,180,255,80" fill="1" layer="50.00" shape="214100.000000,451300.000000 214200.000000,451500.000000 214100.000000,451700.000000 213800.000000,451700.000000 213700.000000,451500.000000 213800.000000,451300.000000 214100.000000,451300.000000"/>
    <poly id="CELL_A01_8" color="0,180,255,80" fill="1" layer="50.00" shape="214600.000000,451500.000000 214500.000000,451700.000000 214600.000000,451900.000000 214900.000000,451900.000000 215000.000000,451700.000000 214900.000000,451500.000000 214600.000000,451500.000000"/>
    <poly id="CELL_A01_9" type="cell" color="0,180,255,80" fill="1" layer="50.00" shape="213800.000000,450900.000000 214100.000000,450900.000000 214200.000000,451100.000000 214100.000000,451300.000000 213800.000000,451300.000000 213700.000000,451100.000000 213800.000000,450900.000000"/>
</additional>
