<configuration>
    <input>
        <net-file value="ingolstadt.net.xml"/>
        <route-files value="routes_HC2_10pct_shift0.rou.xml"/>
        <additional-files value="cells.poly.xml,cells_edges.add.xml"/>
    </input>
</configuration>
